yeet
          -------------------------------------------------------
          Amber 21 SANDER                              2021
          -------------------------------------------------------

  [-O]verwriting output

File Assignments:

 Here is the input file:

Heat up to 1000K
 &cntrl
  imin=0,
  irest=0,
  ntx=1,
  nstlim=250000,
  ntpr=50,
  ntwx=50,
  dt=0.0005,
  ntt=2,
  vrand=1000
  tautp=5.0,
  tempi=1000,
  temp0=500,
  ntb=0
  cut=999,
  rgbmax=999
/

--------------------------------------------------------------------------------
   1.  RESOURCE   USE:
--------------------------------------------------------------------------------

 NATOM  =     149 NTYPES =      13 NBONH =      68 MBONA  =      95
 NTHETH =     169 MTHETA =     151 NPHIH =     283 MPHIA  =     334
 NHPARM =       0 NPARM  =       0 NNB   =     981 NRES   =       2
 NBONA  =      95 NTHETA =     151 NPHIA =     334 NUMBND =      15
 NUMANG =      29 NPTRA  =      26 NATYP =      14 NPHB   =       0
 IFBOX  =       0 NMXRS  =      90 IFCAP =       0 NEXTRA =       0
 NCOPY  =       0

--------------------------------------------------------------------------------
   2.  CONTROL  DATA  FOR  THE  RUN
--------------------------------------------------------------------------------

UNK

General flags:
     imin    =       0, nmropt  =       0

Nature and format of input:
     ntx     =       1, irest   =       0, ntrx    =       1

Nature and format of output:
     ntxo    =       2, ntpr    =      50, ntrx    =       1, ntwr    =  250000
     iwrap   =       0, ntwx    =      50, ntwv    =       0, ntwe    =       0
     ioutfm  =       1, ntwprt  =       0, idecomp =       0, rbornstat=      0

Potential function:
     ntf     =       1, ntb     =       0, igb     =       0, nsnb    =      25
     ipol    =       0, gbsa    =       0, iesp    =       0
     dielc   =   1.00000, cut     = 999.00000, intdiel =   1.00000

Frozen or restrained atoms:
     ibelly  =       0, ntr     =       0

Molecular dynamics:
     nstlim  =    250000, nscm    =      1000, nrespa  =         1
     t       =   0.00000, dt      =   0.00050, vlimit  =  20.00000

Anderson (strong collision) temperature regulation:
     ig      =   71277, vrand   =    1000
     temp0   = 500.00000, tempi   =1000.00000

--------------------------------------------------------------------------------
   3.  ATOMIC COORDINATES AND VELOCITIES
--------------------------------------------------------------------------------

UNK
 begin time read from input coords =     0.000 ps

 Number of triangulated 3-point waters found:        0

     Sum of charges from parm topology file =   1.00299900

--------------------------------------------------------------------------------
   4.  RESULTS
 NSTEP =        0   TIME(PS) =       0.000  TEMP(K) =   972.99  PRESS =     0.0
 Etot   =       372.3146  EKtot   =       426.3396  EPtot      =       -54.0250
 BOND   =         1.7465  ANGLE   =       112.2113  DIHED      =        46.7500
 1-4 NB =         3.6438  1-4 EEL =      -307.7730  VDWAALS    =       -44.7476
 EELEC  =       134.1441  EHBOND  =         0.0000  RESTRAINT  =         0.0000
 ------------------------------------------------------------------------------

      A V E R A G E S   O V E R  250000 S T E P S

 NSTEP =   250000   TIME(PS) =     125.000  TEMP(K) =   496.02  PRESS =     0.0
 Etot   =       342.8409  EKtot   =       217.3426  EPtot      =       125.4983
 BOND   =        79.6687  ANGLE   =       214.2878  DIHED      =        65.7054
 1-4 NB =         9.2143  1-4 EEL =      -287.7553  VDWAALS    =       -53.9018
 EELEC  =        98.2791  EHBOND  =         0.0000  RESTRAINT  =         0.0000
 ------------------------------------------------------------------------------

      R M S  F L U C T U A T I O N S

 NSTEP =   250000   TIME(PS) =     125.000  TEMP(K) =    33.65  PRESS =     0.0
 Etot   =        21.7814  EKtot   =        14.7450  EPtot      =        15.5634
 BOND   =         8.9035  ANGLE   =        10.0001  DIHED      =         5.1004
 1-4 NB =         1.9999  1-4 EEL =         6.1759  VDWAALS    =         4.2534
 EELEC  =         7.3348  EHBOND  =         0.0000  RESTRAINT  =         0.0000
 ------------------------------------------------------------------------------
